[BaseVersion]
network = Network
sim-time-limit = 200s
Network.nodeTx.gen.generationInterval = exponential(${genInterval=0.1..1 step 0.05})
Network.nodeTx.gen.packetByteSize = 12500
Network.nodeTx.queue.bufferSize = 200
Network.nodeRx.queue.bufferSize = 200
Network.queue.bufferSize = 200


[FeedbackVersion]
network = NetworkFV
sim-time-limit = 200s

NetworkFV.nodeTx.gen.generationInterval = exponential(${genInterval=0.1..1 step 0.05})
NetworkFV.nodeTx.gen.packetByteSize = 12500
NetworkFV.queueOne.bufferSize = 200
NetworkFV.nodeRx.queue.bufferSize = 200
NetworkFV.nodeTx.queue.bufferSize = 2000000
NetworkFV.queueZero.bufferSize = 200